%mem=2gb
%nproc=4
chk=B3LYP_6-31G(d,p)_628.chk

# B3LYP/6-31G(d,p) EmpiricalDispersion=GD3BJ guess=read geom=checkpoint opt=readfc freq=noraman nosymm integral(ultrafinegrid)

Candidate Structure: Conf:628 OPT and FREQ calc in gas phase

1 1

 O  -1.23346269   0.12207384  -0.84286627
 C  -1.46356036  -0.06704854   0.34930880
 N  -0.46100580  -0.24378736   1.22994837
 C   0.90694307  -0.33708688   0.75078395
 C   1.71593805  -0.95985573   1.86882967
 O   3.00755971  -1.16199912   1.52380242
 O   1.28004735  -1.24149746   2.95328941
 C   1.44827173   1.05177459   0.32467653
 C   2.32680453   0.99156251  -0.87916726
 C   2.23440197   1.60899122  -2.09359038
 N   3.28424179   1.23058006  -2.91300877
 C   3.98975767   0.38948685  -2.19678109
 N   3.44646378   0.20530568  -0.96361327
 C  -2.87105585  -0.07869415   0.92827295
 C  -3.85020221  -0.83511852   0.04180225
 N  -3.94723808  -0.19776491  -1.29196404
 H  -0.63041535  -0.51316202   2.18620428
 H   0.91497199  -1.01818565  -0.10778302
 H   3.43321386  -1.56792847   2.29421460
 H   0.60118825   1.68662819   0.07355348
 H   1.95518496   1.52678583   1.16545882
 H   1.47839202   2.30341975  -2.43090911
 H   4.89001956  -0.11398430  -2.50001404
 H   3.77117950  -0.40044037  -0.22688806
 H  -2.85145556  -0.51082336   1.93019936
 H  -3.19336969   0.96164237   1.02586327
 H  -3.51778269  -1.86884791  -0.07297374
 H  -4.83408820  -0.86052358   0.51302587
 H  -4.44018900   0.69303851  -1.23969464
 H  -2.98449980   0.00016841  -1.59919211
 H  -4.40623518  -0.79442654  -1.97939214

