%mem=2gb
%nproc=4
%chk=conf-340.chk

# wB97XD/6-311G(2df,2pd) opt=calcfc freq=noraman nosymm integral(ultrafinegrid)

 Candidate Structure: Conf:340 OPT and FREQ calc in gas phase

0 1
 O   0.53974637  -0.91334399  -0.72521496
 C   1.32328814  -0.14276959  -0.16646462
 N   0.90021868   1.04389792   0.32043906
 C  -0.47302114   1.46462270   0.14573482
 C  -0.52292835   2.96145289   0.41751086
 O  -1.72483288   3.53747967   0.21191085
 O   0.41862094   3.60153866   0.79263539
 C  -1.45176791   0.66823454   1.06386028
 C  -2.56331551   0.02502736   0.29897785
 C  -3.91550003   0.18992299   0.32055383
 N  -4.52123373  -0.63339395  -0.61352154
 C  -3.53361952  -1.27820095  -1.18623738
 N  -2.33140774  -0.91703158  -0.67338700
 C   2.79835650  -0.44774357  -0.00578112
 C   3.07487598  -1.94092236  -0.00475797
 N   4.52097559  -2.16624247   0.07919193
 H   1.54257110   1.75509966   0.63532621
 H  -0.74614345   1.31578472  -0.90546205
 H  -2.34852401   2.88033885  -0.11888041
 H  -0.87897511  -0.09287123   1.59019529
 H  -1.88211463   1.31584050   1.82797747
 H  -4.49613155   0.84974703   0.94933886
 H  -3.61864372  -2.01285078  -1.96747846
 H  -1.41483434  -1.25013075  -0.93326976
 H   3.33807889   0.01405953  -0.83728103
 H   3.17370061   0.01381962   0.91118771
 H   2.70139737  -2.35937830  -0.94071768
 H   2.51041039  -2.41337411   0.80872293
 H   4.72480993  -3.15255341  -0.02997145
 H   4.85581968  -1.91595009   1.00272274




